 &LAYERS_PARM01
 layers_name(1) ='TH',
 layers_bounds(1:38,1)= 10.0000,
   10.2089,
   10.4178,
   10.6268,
   10.8357,
   11.0446,
   11.2535,
   11.4625,
   11.6714,
   11.8803,
   12.0892,
   12.2982,
   12.5071,
   12.7160,
   12.9249,
   13.1338,
   13.3428,
   13.5517,
   13.7606,
   13.9695,
   14.1785,
   14.3874,
   14.5963,
   14.8052,
   15.0142,
   15.2231,
   15.4320,
   15.6409,
   15.8499,
   16.0588,
   16.2677,
   16.4766,
   16.6855,
   16.8945,
   17.1034,
   17.3123,
   17.5212,
   17.7302,
	
 &
